benzene
     RDKit          3D

 12 12  0  0  0  0  0  0  0  0999 V2000
   -0.8547   -1.1022    0.0093 C   0  0  0  0  0  0  0  0  0  0  0  0
   -1.3819    0.1892    0.0087 C   0  0  0  0  0  0  0  0  0  0  0  0
   -0.5272    1.2914   -0.0006 C   0  0  0  0  0  0  0  0  0  0  0  0
    0.8547    1.1022   -0.0093 C   0  0  0  0  0  0  0  0  0  0  0  0
    1.3819   -0.1892   -0.0087 C   0  0  0  0  0  0  0  0  0  0  0  0
    0.5272   -1.2914    0.0006 C   0  0  0  0  0  0  0  0  0  0  0  0
   -1.5207   -1.9610    0.0165 H   0  0  0  0  0  0  0  0  0  0  0  0
   -2.4586    0.3365    0.0155 H   0  0  0  0  0  0  0  0  0  0  0  0
   -0.9379    2.2975   -0.0010 H   0  0  0  0  0  0  0  0  0  0  0  0
    1.5207    1.9610   -0.0165 H   0  0  0  0  0  0  0  0  0  0  0  0
    2.4586   -0.3365   -0.0155 H   0  0  0  0  0  0  0  0  0  0  0  0
    0.9379   -2.2975    0.0010 H   0  0  0  0  0  0  0  0  0  0  0  0
  1  2  1  0
  2  3  2  0
  3  4  1  0
  4  5  2  0
  5  6  1  0
  6  1  2  0
  1  7  1  0
  2  8  1  0
  3  9  1  0
  4 10  1  0
  5 11  1  0
  6 12  1  0
M  END
$$$$
