ibuprofen
     RDKit          3D

 33 33  0  0  0  0  0  0  0  0999 V2000
    4.6499   -0.3099    0.6161 C   0  0  0  0  0  0  0  0  0  0  0  0
    3.1815    0.1185    0.5598 C   0  0  0  0  0  0  0  0  0  0  0  0
    3.0706    1.4923   -0.1064 C   0  0  0  0  0  0  0  0  0  0  0  0
    2.3540   -0.9510   -0.1797 C   0  0  0  0  0  0  0  0  0  0  0  0
    0.8623   -0.7285   -0.1039 C   0  0  0  0  0  0  0  0  0  0  0  0
    0.1697   -0.9531    1.0916 C   0  0  0  0  0  0  0  0  0  0  0  0
   -1.2095   -0.7423    1.1652 C   0  0  0  0  0  0  0  0  0  0  0  0
   -1.9270   -0.3037    0.0438 C   0  0  0  0  0  0  0  0  0  0  0  0
   -1.2298   -0.0785   -1.1523 C   0  0  0  0  0  0  0  0  0  0  0  0
    0.1493   -0.2897   -1.2251 C   0  0  0  0  0  0  0  0  0  0  0  0
   -3.4246   -0.0784    0.1413 C   0  0  0  0  0  0  0  0  0  0  0  0
   -4.2048   -1.0119   -0.7870 C   0  0  0  0  0  0  0  0  0  0  0  0
   -3.7955    1.3673   -0.1325 C   0  0  0  0  0  0  0  0  0  0  0  0
   -4.1030    1.8579   -1.2075 O   0  0  0  0  0  0  0  0  0  0  0  0
   -3.7443    2.1390    0.9740 O   0  0  0  0  0  0  0  0  0  0  0  0
    5.2496    0.4260    1.1622 H   0  0  0  0  0  0  0  0  0  0  0  0
    4.7552   -1.2715    1.1294 H   0  0  0  0  0  0  0  0  0  0  0  0
    5.0730   -0.4133   -0.3890 H   0  0  0  0  0  0  0  0  0  0  0  0
    2.8215    0.2112    1.5924 H   0  0  0  0  0  0  0  0  0  0  0  0
    3.7016    2.2246    0.4088 H   0  0  0  0  0  0  0  0  0  0  0  0
    3.3871    1.4525   -1.1542 H   0  0  0  0  0  0  0  0  0  0  0  0
    2.0433    1.8685   -0.0747 H   0  0  0  0  0  0  0  0  0  0  0  0
    2.5642   -1.9421    0.2444 H   0  0  0  0  0  0  0  0  0  0  0  0
    2.6699   -1.0078   -1.2298 H   0  0  0  0  0  0  0  0  0  0  0  0
    0.7019   -1.2944    1.9767 H   0  0  0  0  0  0  0  0  0  0  0  0
   -1.7177   -0.9226    2.1101 H   0  0  0  0  0  0  0  0  0  0  0  0
   -1.7537    0.2696   -2.0411 H   0  0  0  0  0  0  0  0  0  0  0  0
    0.6633   -0.1029   -2.1654 H   0  0  0  0  0  0  0  0  0  0  0  0
   -3.7643   -0.3041    1.1615 H   0  0  0  0  0  0  0  0  0  0  0  0
   -5.2836   -0.8627   -0.6650 H   0  0  0  0  0  0  0  0  0  0  0  0
   -3.9803   -2.0613   -0.5665 H   0  0  0  0  0  0  0  0  0  0  0  0
   -3.9709   -0.8345   -1.8427 H   0  0  0  0  0  0  0  0  0  0  0  0
   -3.9585    3.0370    0.6454 H   0  0  0  0  0  0  0  0  0  0  0  0
  1  2  1  0
  2  3  1  0
  2  4  1  0
  4  5  1  0
  5  6  1  0
  6  7  2  0
  7  8  1  0
  8  9  2  0
  9 10  1  0
  8 11  1  0
 11 12  1  0
 11 13  1  0
 13 14  2  0
 13 15  1  0
 10  5  2  0
  1 16  1  0
  1 17  1  0
  1 18  1  0
  2 19  1  0
  3 20  1  0
  3 21  1  0
  3 22  1  0
  4 23  1  0
  4 24  1  0
  6 25  1  0
  7 26  1  0
  9 27  1  0
 10 28  1  0
 11 29  1  0
 12 30  1  0
 12 31  1  0
 12 32  1  0
 15 33  1  0
M  END
$$$$
