benzene
     RDKit          3D

 12 12  0  0  0  0  0  0  0  0999 V2000
   -0.8547   -1.1022    0.0093 C   0  0  0  0  0  0  0  0  0  0  0  0
   -1.3819    0.1892    0.0087 C   0  0  0  0  0  0  0  0  0  0  0  0
   -0.5272    1.2914   -0.0006 C   0  0  0  0  0  0  0  0  0  0  0  0
    0.8547    1.1022   -0.0093 C   0  0  0  0  0  0  0  0  0  0  0  0
    1.3819   -0.1892   -0.0087 C   0  0  0  0  0  0  0  0  0  0  0  0
    0.5272   -1.2914    0.0006 C   0  0  0  0  0  0  0  0  0  0  0  0
   -1.5207   -1.9610    0.0165 H   0  0  0  0  0  0  0  0  0  0  0  0
   -2.4586    0.3365    0.0155 H   0  0  0  0  0  0  0  0  0  0  0  0
   -0.9379    2.2975   -0.0010 H   0  0  0  0  0  0  0  0  0  0  0  0
    1.5207    1.9610   -0.0165 H   0  0  0  0  0  0  0  0  0  0  0  0
    2.4586   -0.3365   -0.0155 H   0  0  0  0  0  0  0  0  0  0  0  0
    0.9379   -2.2975    0.0010 H   0  0  0  0  0  0  0  0  0  0  0  0
  1  2  1  0
  2  3  2  0
  3  4  1  0
  4  5  2  0
  5  6  1  0
  6  1  2  0
  1  7  1  0
  2  8  1  0
  3  9  1  0
  4 10  1  0
  5 11  1  0
  6 12  1  0
M  END
$$$$
toluene
     RDKit          3D

 15 15  0  0  0  0  0  0  0  0999 V2000
    2.1953   -0.3373   -0.0285 C   0  0  0  0  0  0  0  0  0  0  0  0
    0.7132   -0.1078   -0.0340 C   0  0  0  0  0  0  0  0  0  0  0  0
    0.1957    1.1886    0.0779 C   0  0  0  0  0  0  0  0  0  0  0  0
   -1.1840    1.3994    0.1045 C   0  0  0  0  0  0  0  0  0  0  0  0
   -2.0574    0.3159    0.0299 C   0  0  0  0  0  0  0  0  0  0  0  0
   -1.5517   -0.9791   -0.0668 C   0  0  0  0  0  0  0  0  0  0  0  0
   -0.1722   -1.1911   -0.0935 C   0  0  0  0  0  0  0  0  0  0  0  0
    2.5501   -0.4661    0.9987 H   0  0  0  0  0  0  0  0  0  0  0  0
    2.4545   -1.2300   -0.6074 H   0  0  0  0  0  0  0  0  0  0  0  0
    2.7232    0.5080   -0.4823 H   0  0  0  0  0  0  0  0  0  0  0  0
    0.8652    2.0431    0.1443 H   0  0  0  0  0  0  0  0  0  0  0  0
   -1.5770    2.4093    0.1862 H   0  0  0  0  0  0  0  0  0  0  0  0
   -3.1312    0.4804    0.0515 H   0  0  0  0  0  0  0  0  0  0  0  0
   -2.2317   -1.8253   -0.1187 H   0  0  0  0  0  0  0  0  0  0  0  0
    0.2080   -2.2078   -0.1618 H   0  0  0  0  0  0  0  0  0  0  0  0
  1  2  1  0
  2  3  2  0
  3  4  1  0
  4  5  2  0
  5  6  1  0
  6  7  2  0
  7  2  1  0
  1  8  1  0
  1  9  1  0
  1 10  1  0
  3 11  1  0
  4 12  1  0
  5 13  1  0
  6 14  1  0
  7 15  1  0
M  END
$$$$
phenol
     RDKit          3D

 13 13  0  0  0  0  0  0  0  0999 V2000
    2.4846    0.1951   -0.0030 O   0  0  0  0  0  0  0  0  0  0  0  0
    1.1267    0.0746   -0.0411 C   0  0  0  0  0  0  0  0  0  0  0  0
    0.3188    1.1161   -0.4888 C   0  0  0  0  0  0  0  0  0  0  0  0
   -1.0668    0.9477   -0.5103 C   0  0  0  0  0  0  0  0  0  0  0  0
   -1.6325   -0.2558   -0.0858 C   0  0  0  0  0  0  0  0  0  0  0  0
   -0.8136   -1.2934    0.3611 C   0  0  0  0  0  0  0  0  0  0  0  0
    0.5710   -1.1272    0.3834 C   0  0  0  0  0  0  0  0  0  0  0  0
    2.7240    1.0790   -0.3257 H   0  0  0  0  0  0  0  0  0  0  0  0
    0.7449    2.0569   -0.8217 H   0  0  0  0  0  0  0  0  0  0  0  0
   -1.7072    1.7542   -0.8579 H   0  0  0  0  0  0  0  0  0  0  0  0
   -2.7117   -0.3854   -0.1031 H   0  0  0  0  0  0  0  0  0  0  0  0
   -1.2524   -2.2308    0.6919 H   0  0  0  0  0  0  0  0  0  0  0  0
    1.2140   -1.9309    0.7301 H   0  0  0  0  0  0  0  0  0  0  0  0
  1  2  1  0
  2  3  2  0
  3  4  1  0
  4  5  2  0
  5  6  1  0
  6  7  2  0
  7  2  1  0
  1  8  1  0
  3  9  1  0
  4 10  1  0
  5 11  1  0
  6 12  1  0
  7 13  1  0
M  END
$$$$
ibuprofen
     RDKit          3D

 33 33  0  0  0  0  0  0  0  0999 V2000
    4.6499   -0.3099    0.6161 C   0  0  0  0  0  0  0  0  0  0  0  0
    3.1815    0.1185    0.5598 C   0  0  0  0  0  0  0  0  0  0  0  0
    3.0706    1.4923   -0.1064 C   0  0  0  0  0  0  0  0  0  0  0  0
    2.3540   -0.9510   -0.1797 C   0  0  0  0  0  0  0  0  0  0  0  0
    0.8623   -0.7285   -0.1039 C   0  0  0  0  0  0  0  0  0  0  0  0
    0.1697   -0.9531    1.0916 C   0  0  0  0  0  0  0  0  0  0  0  0
   -1.2095   -0.7423    1.1652 C   0  0  0  0  0  0  0  0  0  0  0  0
   -1.9270   -0.3037    0.0438 C   0  0  0  0  0  0  0  0  0  0  0  0
   -1.2298   -0.0785   -1.1523 C   0  0  0  0  0  0  0  0  0  0  0  0
    0.1493   -0.2897   -1.2251 C   0  0  0  0  0  0  0  0  0  0  0  0
   -3.4246   -0.0784    0.1413 C   0  0  0  0  0  0  0  0  0  0  0  0
   -4.2048   -1.0119   -0.7870 C   0  0  0  0  0  0  0  0  0  0  0  0
   -3.7955    1.3673   -0.1325 C   0  0  0  0  0  0  0  0  0  0  0  0
   -4.1030    1.8579   -1.2075 O   0  0  0  0  0  0  0  0  0  0  0  0
   -3.7443    2.1390    0.9740 O   0  0  0  0  0  0  0  0  0  0  0  0
    5.2496    0.4260    1.1622 H   0  0  0  0  0  0  0  0  0  0  0  0
    4.7552   -1.2715    1.1294 H   0  0  0  0  0  0  0  0  0  0  0  0
    5.0730   -0.4133   -0.3890 H   0  0  0  0  0  0  0  0  0  0  0  0
    2.8215    0.2112    1.5924 H   0  0  0  0  0  0  0  0  0  0  0  0
    3.7016    2.2246    0.4088 H   0  0  0  0  0  0  0  0  0  0  0  0
    3.3871    1.4525   -1.1542 H   0  0  0  0  0  0  0  0  0  0  0  0
    2.0433    1.8685   -0.0747 H   0  0  0  0  0  0  0  0  0  0  0  0
    2.5642   -1.9421    0.2444 H   0  0  0  0  0  0  0  0  0  0  0  0
    2.6699   -1.0078   -1.2298 H   0  0  0  0  0  0  0  0  0  0  0  0
    0.7019   -1.2944    1.9767 H   0  0  0  0  0  0  0  0  0  0  0  0
   -1.7177   -0.9226    2.1101 H   0  0  0  0  0  0  0  0  0  0  0  0
   -1.7537    0.2696   -2.0411 H   0  0  0  0  0  0  0  0  0  0  0  0
    0.6633   -0.1029   -2.1654 H   0  0  0  0  0  0  0  0  0  0  0  0
   -3.7643   -0.3041    1.1615 H   0  0  0  0  0  0  0  0  0  0  0  0
   -5.2836   -0.8627   -0.6650 H   0  0  0  0  0  0  0  0  0  0  0  0
   -3.9803   -2.0613   -0.5665 H   0  0  0  0  0  0  0  0  0  0  0  0
   -3.9709   -0.8345   -1.8427 H   0  0  0  0  0  0  0  0  0  0  0  0
   -3.9585    3.0370    0.6454 H   0  0  0  0  0  0  0  0  0  0  0  0
  1  2  1  0
  2  3  1  0
  2  4  1  0
  4  5  1  0
  5  6  1  0
  6  7  2  0
  7  8  1  0
  8  9  2  0
  9 10  1  0
  8 11  1  0
 11 12  1  0
 11 13  1  0
 13 14  2  0
 13 15  1  0
 10  5  2  0
  1 16  1  0
  1 17  1  0
  1 18  1  0
  2 19  1  0
  3 20  1  0
  3 21  1  0
  3 22  1  0
  4 23  1  0
  4 24  1  0
  6 25  1  0
  7 26  1  0
  9 27  1  0
 10 28  1  0
 11 29  1  0
 12 30  1  0
 12 31  1  0
 12 32  1  0
 15 33  1  0
M  END
$$$$
salbutamol
     RDKit          3D

 38 38  0  0  0  0  0  0  0  0999 V2000
    2.3110    0.8871   -1.5338 C   0  0  0  0  0  0  0  0  0  0  0  0
    2.9623    0.1994   -0.3222 C   0  0  0  0  0  0  0  0  0  0  0  0
    3.8723   -0.9470   -0.7913 C   0  0  0  0  0  0  0  0  0  0  0  0
    3.8276    1.2417    0.4134 C   0  0  0  0  0  0  0  0  0  0  0  0
    1.9464   -0.2519    0.6470 N   0  0  0  0  0  0  0  0  0  0  0  0
    1.0567   -1.3319    0.1912 C   0  0  0  0  0  0  0  0  0  0  0  0
   -0.1379   -1.5670    1.1559 C   0  0  0  0  0  0  0  0  0  0  0  0
   -0.6357   -2.8995    0.9812 O   0  0  0  0  0  0  0  0  0  0  0  0
   -1.2586   -0.5650    0.9466 C   0  0  0  0  0  0  0  0  0  0  0  0
   -1.1793    0.7046    1.5371 C   0  0  0  0  0  0  0  0  0  0  0  0
   -2.1889    1.6480    1.3419 C   0  0  0  0  0  0  0  0  0  0  0  0
   -3.2877    1.3274    0.5478 C   0  0  0  0  0  0  0  0  0  0  0  0
   -4.2791    2.2494    0.3436 O   0  0  0  0  0  0  0  0  0  0  0  0
   -3.3978    0.0772   -0.0690 C   0  0  0  0  0  0  0  0  0  0  0  0
   -4.5964   -0.3047   -0.9007 C   0  0  0  0  0  0  0  0  0  0  0  0
   -4.9102    0.6838   -1.8750 O   0  0  0  0  0  0  0  0  0  0  0  0
   -2.3739   -0.8616    0.1438 C   0  0  0  0  0  0  0  0  0  0  0  0
    1.7597    0.1818   -2.1640 H   0  0  0  0  0  0  0  0  0  0  0  0
    3.0697    1.3575   -2.1704 H   0  0  0  0  0  0  0  0  0  0  0  0
    1.6148    1.6732   -1.2185 H   0  0  0  0  0  0  0  0  0  0  0  0
    4.3209   -1.4731    0.0593 H   0  0  0  0  0  0  0  0  0  0  0  0
    3.3265   -1.6817   -1.3933 H   0  0  0  0  0  0  0  0  0  0  0  0
    4.6920   -0.5669   -1.4122 H   0  0  0  0  0  0  0  0  0  0  0  0
    4.6041    1.6472   -0.2458 H   0  0  0  0  0  0  0  0  0  0  0  0
    3.2232    2.0856    0.7674 H   0  0  0  0  0  0  0  0  0  0  0  0
    4.3322    0.8039    1.2831 H   0  0  0  0  0  0  0  0  0  0  0  0
    2.4064   -0.5445    1.5092 H   0  0  0  0  0  0  0  0  0  0  0  0
    0.6609   -1.1363   -0.8112 H   0  0  0  0  0  0  0  0  0  0  0  0
    1.6335   -2.2622    0.1228 H   0  0  0  0  0  0  0  0  0  0  0  0
    0.1966   -1.5092    2.1997 H   0  0  0  0  0  0  0  0  0  0  0  0
    0.0565   -3.5032    1.2972 H   0  0  0  0  0  0  0  0  0  0  0  0
   -0.3166    0.9696    2.1453 H   0  0  0  0  0  0  0  0  0  0  0  0
   -2.0944    2.6233    1.8086 H   0  0  0  0  0  0  0  0  0  0  0  0
   -4.0774    3.0365    0.8783 H   0  0  0  0  0  0  0  0  0  0  0  0
   -5.4661   -0.4423   -0.2493 H   0  0  0  0  0  0  0  0  0  0  0  0
   -4.4261   -1.2447   -1.4352 H   0  0  0  0  0  0  0  0  0  0  0  0
   -4.8030    1.5392   -1.4155 H   0  0  0  0  0  0  0  0  0  0  0  0
   -2.4443   -1.8435   -0.3230 H   0  0  0  0  0  0  0  0  0  0  0  0
  1  2  1  0
  2  3  1  0
  2  4  1  0
  2  5  1  0
  5  6  1  0
  6  7  1  0
  7  8  1  0
  7  9  1  0
  9 10  1  0
 10 11  2  0
 11 12  1  0
 12 13  1  0
 12 14  2  0
 14 15  1  0
 15 16  1  0
 14 17  1  0
 17  9  2  0
  1 18  1  0
  1 19  1  0
  1 20  1  0
  3 21  1  0
  3 22  1  0
  3 23  1  0
  4 24  1  0
  4 25  1  0
  4 26  1  0
  5 27  1  0
  6 28  1  0
  6 29  1  0
  7 30  1  0
  8 31  1  0
 10 32  1  0
 11 33  1  0
 13 34  1  0
 15 35  1  0
 15 36  1  0
 16 37  1  0
 17 38  1  0
M  END
$$$$
