phenol
     RDKit          3D

 13 13  0  0  0  0  0  0  0  0999 V2000
    2.4846    0.1951   -0.0030 O   0  0  0  0  0  0  0  0  0  0  0  0
    1.1267    0.0746   -0.0411 C   0  0  0  0  0  0  0  0  0  0  0  0
    0.3188    1.1161   -0.4888 C   0  0  0  0  0  0  0  0  0  0  0  0
   -1.0668    0.9477   -0.5103 C   0  0  0  0  0  0  0  0  0  0  0  0
   -1.6325   -0.2558   -0.0858 C   0  0  0  0  0  0  0  0  0  0  0  0
   -0.8136   -1.2934    0.3611 C   0  0  0  0  0  0  0  0  0  0  0  0
    0.5710   -1.1272    0.3834 C   0  0  0  0  0  0  0  0  0  0  0  0
    2.7240    1.0790   -0.3257 H   0  0  0  0  0  0  0  0  0  0  0  0
    0.7449    2.0569   -0.8217 H   0  0  0  0  0  0  0  0  0  0  0  0
   -1.7072    1.7542   -0.8579 H   0  0  0  0  0  0  0  0  0  0  0  0
   -2.7117   -0.3854   -0.1031 H   0  0  0  0  0  0  0  0  0  0  0  0
   -1.2524   -2.2308    0.6919 H   0  0  0  0  0  0  0  0  0  0  0  0
    1.2140   -1.9309    0.7301 H   0  0  0  0  0  0  0  0  0  0  0  0
  1  2  1  0
  2  3  2  0
  3  4  1  0
  4  5  2  0
  5  6  1  0
  6  7  2  0
  7  2  1  0
  1  8  1  0
  3  9  1  0
  4 10  1  0
  5 11  1  0
  6 12  1  0
  7 13  1  0
M  END
$$$$
