salbutamol
     RDKit          3D

 38 38  0  0  0  0  0  0  0  0999 V2000
    2.3110    0.8871   -1.5338 C   0  0  0  0  0  0  0  0  0  0  0  0
    2.9623    0.1994   -0.3222 C   0  0  0  0  0  0  0  0  0  0  0  0
    3.8723   -0.9470   -0.7913 C   0  0  0  0  0  0  0  0  0  0  0  0
    3.8276    1.2417    0.4134 C   0  0  0  0  0  0  0  0  0  0  0  0
    1.9464   -0.2519    0.6470 N   0  0  0  0  0  0  0  0  0  0  0  0
    1.0567   -1.3319    0.1912 C   0  0  0  0  0  0  0  0  0  0  0  0
   -0.1379   -1.5670    1.1559 C   0  0  0  0  0  0  0  0  0  0  0  0
   -0.6357   -2.8995    0.9812 O   0  0  0  0  0  0  0  0  0  0  0  0
   -1.2586   -0.5650    0.9466 C   0  0  0  0  0  0  0  0  0  0  0  0
   -1.1793    0.7046    1.5371 C   0  0  0  0  0  0  0  0  0  0  0  0
   -2.1889    1.6480    1.3419 C   0  0  0  0  0  0  0  0  0  0  0  0
   -3.2877    1.3274    0.5478 C   0  0  0  0  0  0  0  0  0  0  0  0
   -4.2791    2.2494    0.3436 O   0  0  0  0  0  0  0  0  0  0  0  0
   -3.3978    0.0772   -0.0690 C   0  0  0  0  0  0  0  0  0  0  0  0
   -4.5964   -0.3047   -0.9007 C   0  0  0  0  0  0  0  0  0  0  0  0
   -4.9102    0.6838   -1.8750 O   0  0  0  0  0  0  0  0  0  0  0  0
   -2.3739   -0.8616    0.1438 C   0  0  0  0  0  0  0  0  0  0  0  0
    1.7597    0.1818   -2.1640 H   0  0  0  0  0  0  0  0  0  0  0  0
    3.0697    1.3575   -2.1704 H   0  0  0  0  0  0  0  0  0  0  0  0
    1.6148    1.6732   -1.2185 H   0  0  0  0  0  0  0  0  0  0  0  0
    4.3209   -1.4731    0.0593 H   0  0  0  0  0  0  0  0  0  0  0  0
    3.3265   -1.6817   -1.3933 H   0  0  0  0  0  0  0  0  0  0  0  0
    4.6920   -0.5669   -1.4122 H   0  0  0  0  0  0  0  0  0  0  0  0
    4.6041    1.6472   -0.2458 H   0  0  0  0  0  0  0  0  0  0  0  0
    3.2232    2.0856    0.7674 H   0  0  0  0  0  0  0  0  0  0  0  0
    4.3322    0.8039    1.2831 H   0  0  0  0  0  0  0  0  0  0  0  0
    2.4064   -0.5445    1.5092 H   0  0  0  0  0  0  0  0  0  0  0  0
    0.6609   -1.1363   -0.8112 H   0  0  0  0  0  0  0  0  0  0  0  0
    1.6335   -2.2622    0.1228 H   0  0  0  0  0  0  0  0  0  0  0  0
    0.1966   -1.5092    2.1997 H   0  0  0  0  0  0  0  0  0  0  0  0
    0.0565   -3.5032    1.2972 H   0  0  0  0  0  0  0  0  0  0  0  0
   -0.3166    0.9696    2.1453 H   0  0  0  0  0  0  0  0  0  0  0  0
   -2.0944    2.6233    1.8086 H   0  0  0  0  0  0  0  0  0  0  0  0
   -4.0774    3.0365    0.8783 H   0  0  0  0  0  0  0  0  0  0  0  0
   -5.4661   -0.4423   -0.2493 H   0  0  0  0  0  0  0  0  0  0  0  0
   -4.4261   -1.2447   -1.4352 H   0  0  0  0  0  0  0  0  0  0  0  0
   -4.8030    1.5392   -1.4155 H   0  0  0  0  0  0  0  0  0  0  0  0
   -2.4443   -1.8435   -0.3230 H   0  0  0  0  0  0  0  0  0  0  0  0
  1  2  1  0
  2  3  1  0
  2  4  1  0
  2  5  1  0
  5  6  1  0
  6  7  1  0
  7  8  1  0
  7  9  1  0
  9 10  1  0
 10 11  2  0
 11 12  1  0
 12 13  1  0
 12 14  2  0
 14 15  1  0
 15 16  1  0
 14 17  1  0
 17  9  2  0
  1 18  1  0
  1 19  1  0
  1 20  1  0
  3 21  1  0
  3 22  1  0
  3 23  1  0
  4 24  1  0
  4 25  1  0
  4 26  1  0
  5 27  1  0
  6 28  1  0
  6 29  1  0
  7 30  1  0
  8 31  1  0
 10 32  1  0
 11 33  1  0
 13 34  1  0
 15 35  1  0
 15 36  1  0
 16 37  1  0
 17 38  1  0
M  END
$$$$
