toluene
     RDKit          3D

 15 15  0  0  0  0  0  0  0  0999 V2000
    2.1953   -0.3373   -0.0285 C   0  0  0  0  0  0  0  0  0  0  0  0
    0.7132   -0.1078   -0.0340 C   0  0  0  0  0  0  0  0  0  0  0  0
    0.1957    1.1886    0.0779 C   0  0  0  0  0  0  0  0  0  0  0  0
   -1.1840    1.3994    0.1045 C   0  0  0  0  0  0  0  0  0  0  0  0
   -2.0574    0.3159    0.0299 C   0  0  0  0  0  0  0  0  0  0  0  0
   -1.5517   -0.9791   -0.0668 C   0  0  0  0  0  0  0  0  0  0  0  0
   -0.1722   -1.1911   -0.0935 C   0  0  0  0  0  0  0  0  0  0  0  0
    2.5501   -0.4661    0.9987 H   0  0  0  0  0  0  0  0  0  0  0  0
    2.4545   -1.2300   -0.6074 H   0  0  0  0  0  0  0  0  0  0  0  0
    2.7232    0.5080   -0.4823 H   0  0  0  0  0  0  0  0  0  0  0  0
    0.8652    2.0431    0.1443 H   0  0  0  0  0  0  0  0  0  0  0  0
   -1.5770    2.4093    0.1862 H   0  0  0  0  0  0  0  0  0  0  0  0
   -3.1312    0.4804    0.0515 H   0  0  0  0  0  0  0  0  0  0  0  0
   -2.2317   -1.8253   -0.1187 H   0  0  0  0  0  0  0  0  0  0  0  0
    0.2080   -2.2078   -0.1618 H   0  0  0  0  0  0  0  0  0  0  0  0
  1  2  1  0
  2  3  2  0
  3  4  1  0
  4  5  2  0
  5  6  1  0
  6  7  2  0
  7  2  1  0
  1  8  1  0
  1  9  1  0
  1 10  1  0
  3 11  1  0
  4 12  1  0
  5 13  1  0
  6 14  1  0
  7 15  1  0
M  END
$$$$
